@<TRIPOS>MOLECULE
pocket
 41 0 0 0
SMALL
GASTEIGER

@<TRIPOS>ATOM
      1  H         56.5000   40.5000    56.5000 H       1  FIL1        0.0306
      2  H         56.5000   47.5000    55.5000 H       1  FIL1        0.0280      
      5  H         56.5000   50.5000    49.5000 H       1  FIL1        0.0596     
      8  H         56.5000   56.5000    44.5000 H       1  FIL1        0.0903      
     23  H         58.5000   43.5000    56.5000 H       1  FIL1        0.0844     
     29  H         58.5000   47.5000    60.5000 H       1  FIL1        0.0574    
     33  H         58.5000   55.5000    48.5000 H       1  FIL1        0.0278    
     38  H         59.5000   47.5000    64.5000 H       1  FIL1        0.0340     
     40  H         59.5000   49.5000    47.5000 H       1  FIL1        0.0495
@<TRIPOS>BOND
