@<TRIPOS>MOLECULE
pocket
 41 0 0 0
SMALL
GASTEIGER

@<TRIPOS>ATOM
      1  H         56.5000   40.5000    56.5000 H       1  FIL1        0.0306
      2  H         56.5000   47.5000    55.5000 H       1  FIL1        0.0280
      3  H         56.5000   49.5000    49.5000 H       1  FIL1        0.0360
      4  H         56.5000   49.5000    50.5000 H       1  FIL1        0.0425
      5  H         56.5000   50.5000    49.5000 H       1  FIL1        0.0596
      6  H         56.5000   50.5000    50.5000 H       1  FIL1        0.0267
      7  H         56.5000   56.5000    43.5000 H       1  FIL1        0.0438
      8  H         56.5000   56.5000    44.5000 H       1  FIL1        0.0903
      9  H         56.5000   57.5000    43.5000 H       1  FIL1        0.0387
     10  H         57.5000   43.5000    56.5000 H       1  FIL1        0.0358
     11  H         57.5000   44.5000    55.5000 H       1  FIL1        0.0358
     12  H         57.5000   44.5000    56.5000 H       1  FIL1        0.0673
     13  H         57.5000   45.5000    55.5000 H       1  FIL1        0.0238
     14  H         57.5000   45.5000    56.5000 H       1  FIL1        0.0453
     15  H         57.5000   49.5000    49.5000 H       1  FIL1        0.0351
     16  H         57.5000   49.5000    50.5000 H       1  FIL1        0.0410
     17  H         57.5000   50.5000    49.5000 H       1  FIL1        0.0361
     18  H         57.5000   50.5000    50.5000 H       1  FIL1        0.0240
     19  H         57.5000   56.5000    43.5000 H       1  FIL1        0.0247
     20  H         57.5000   56.5000    44.5000 H       1  FIL1        0.0608
     21  H         58.5000   42.5000    56.5000 H       1  FIL1        0.0377
     22  H         58.5000   43.5000    55.5000 H       1  FIL1        0.0308
     23  H         58.5000   43.5000    56.5000 H       1  FIL1        0.0844
     24  H         58.5000   44.5000    55.5000 H       1  FIL1        0.0264
     25  H         58.5000   44.5000    56.5000 H       1  FIL1        0.0595
     26  H         58.5000   47.5000    57.5000 H       1  FIL1        0.0430
     27  H         58.5000   47.5000    58.5000 H       1  FIL1        0.0296
     28  H         58.5000   47.5000    59.5000 H       1  FIL1        0.0432
     29  H         58.5000   47.5000    60.5000 H       1  FIL1        0.0574
     30  H         58.5000   48.5000    60.5000 H       1  FIL1        0.0398
     31  H         58.5000   49.5000    47.5000 H       1  FIL1        0.0283
     32  H         58.5000   49.5000    48.5000 H       1  FIL1        0.0263
     33  H         58.5000   55.5000    48.5000 H       1  FIL1        0.0278
     34  H         59.5000   42.5000    56.5000 H       1  FIL1        0.0250
     35  H         59.5000   43.5000    56.5000 H       1  FIL1        0.0317
     36  H         59.5000   44.5000    56.5000 H       1  FIL1        0.0256
     37  H         59.5000   47.5000    60.5000 H       1  FIL1        0.0315
     38  H         59.5000   47.5000    64.5000 H       1  FIL1        0.0340
     39  H         59.5000   48.5000    60.5000 H       1  FIL1        0.0457
     40  H         59.5000   49.5000    47.5000 H       1  FIL1        0.0495
     41  H         59.5000   49.5000    48.5000 H       1  FIL1        0.0247
@<TRIPOS>BOND
