# created with PyMOL 2.3.3
@<TRIPOS>MOLECULE
simply
5 0 1                   
SMALL
USER_CHARGES
@<TRIPOS>ATOM
1	 PS1	58.025	44.801	57.649	Du	1	PSD1	0.000	
2	 PS2	59.189	49.079	49.968	Du	1	PSD1	0.000	
3	 PS3	60.045	52.214	57.391	Du	1	PSD1	0.000	
4	 PS4	59.338	54.205	44.002	Du	1	PSD1	0.000	
5	 PS5	60.648	54.153	61.870	Du	1	PSD1	0.000	
@<TRIPOS>BOND
@<TRIPOS>SUBSTRUCTURE
1	PSD1	1	GROUP	1 P	PSD
