# created with PyMOL 2.3.3
@<TRIPOS>MOLECULE
pocket
60 0 1                  
SMALL
USER_CHARGES
@<TRIPOS>ATOM
1	   H	57.500	45.500	56.500	 H	1	FIL1	0.031	
2	   H	58.550	44.103	57.797	 H	1	FIL1	0.031	
3	   H	57.500	45.500	57.500	 H	1	FIL1	0.054	
4	   H	57.913	49.922	53.831	 H	1	FIL1	0.028	
5	   H	57.890	49.085	47.563	 H	1	FIL1	0.036	
6	   H	57.500	46.500	56.500	 H	1	FIL1	0.044	
7	   H	57.862	49.522	48.461	 H	1	FIL1	0.043	
8	   H	57.500	46.500	57.500	 H	1	FIL1	0.055	
9	   H	57.795	49.978	47.124	 H	1	FIL1	0.060	
10	   H	57.500	49.500	48.500	 H	1	FIL1	0.035	
11	   H	57.500	49.500	49.500	 H	1	FIL1	0.064	
12	   H	57.767	50.416	48.023	 H	1	FIL1	0.027	
13	   H	57.500	50.500	48.500	 H	1	FIL1	0.110	
14	   H	57.392	52.716	39.103	 H	1	FIL1	0.044	
15	   H	57.364	53.154	40.002	 H	1	FIL1	0.090	
16	   H	57.500	50.500	49.500	 H	1	FIL1	0.122	
17	   H	58.500	46.500	56.500	 H	1	FIL1	0.040	
18	   H	57.297	53.610	38.665	 H	1	FIL1	0.039	
19	   H	58.500	46.500	57.500	 H	1	FIL1	0.044	
20	   H	59.260	46.882	56.466	 H	1	FIL1	0.036	
21	   H	58.500	49.500	49.500	 H	1	FIL1	0.036	
22	   H	59.193	47.338	55.129	 H	1	FIL1	0.036	
23	   H	58.500	50.500	48.500	 H	1	FIL1	0.085	
24	   H	59.165	47.776	56.028	 H	1	FIL1	0.067	
25	   H	59.098	48.232	54.691	 H	1	FIL1	0.024	
26	   H	58.500	50.500	49.500	 H	1	FIL1	0.092	
27	   H	59.070	48.670	55.590	 H	1	FIL1	0.045	
28	   H	58.500	51.500	49.500	 H	1	FIL1	0.073	
29	   H	58.885	49.182	47.546	 H	1	FIL1	0.035	
30	   H	59.500	51.500	41.500	 H	1	FIL1	0.063	
31	   H	58.857	49.620	48.445	 H	1	FIL1	0.041	
32	   H	59.500	51.500	42.500	 H	1	FIL1	0.181	
33	   H	59.500	51.500	43.500	 H	1	FIL1	0.050	
34	   H	58.790	50.076	47.108	 H	1	FIL1	0.036	
35	   H	60.500	51.500	41.500	 H	1	FIL1	0.072	
36	   H	58.762	50.514	48.006	 H	1	FIL1	0.024	
37	   H	58.387	52.814	39.086	 H	1	FIL1	0.025	
38	   H	60.500	51.500	42.500	 H	1	FIL1	0.090	
39	   H	58.359	53.251	39.985	 H	1	FIL1	0.061	
40	   H	60.350	46.086	56.888	 H	1	FIL1	0.038	
41	   H	60.283	46.542	55.551	 H	1	FIL1	0.031	
42	   H	60.255	46.980	56.449	 H	1	FIL1	0.084	
43	   H	60.188	47.436	55.112	 H	1	FIL1	0.026	
44	   H	60.160	47.873	56.011	 H	1	FIL1	0.060	
45	   H	59.848	50.993	55.595	 H	1	FIL1	0.043	
46	   H	59.820	51.430	56.494	 H	1	FIL1	0.030	
47	   H	59.792	51.868	57.393	 H	1	FIL1	0.043	
48	   H	59.764	52.305	58.292	 H	1	FIL1	0.057	
49	   H	59.669	53.199	57.854	 H	1	FIL1	0.040	
50	   H	59.936	48.404	45.732	 H	1	FIL1	0.028	
51	   H	59.908	48.842	46.630	 H	1	FIL1	0.026	
52	   H	59.338	54.205	44.002	 H	1	FIL1	0.028	
53	   H	61.345	46.183	56.871	 H	1	FIL1	0.025	
54	   H	61.250	47.077	56.433	 H	1	FIL1	0.032	
55	   H	61.155	47.971	55.994	 H	1	FIL1	0.026	
56	   H	60.759	52.403	58.275	 H	1	FIL1	0.032	
57	   H	60.648	54.153	61.870	 H	1	FIL1	0.034	
58	   H	60.664	53.297	57.837	 H	1	FIL1	0.046	
59	   H	60.931	48.502	45.715	 H	1	FIL1	0.049	
60	   H	60.903	48.940	46.614	 H	1	FIL1	0.025	
@<TRIPOS>BOND
@<TRIPOS>SUBSTRUCTURE
1	FIL1	1	GROUP	1 ****	FIL
