@<TRIPOS>MOLECULE
pocket
 19 0 0 0
SMALL
GASTEIGER

@<TRIPOS>ATOM
      1  H         57.5000   45.5000    56.5000 H       1  FIL1        0.0306
      2  H         57.5000   45.5000    57.5000 H       1  FIL1        0.0543
      3  H         57.5000   46.5000    56.5000 H       1  FIL1        0.0441
      4  H         57.5000   46.5000    57.5000 H       1  FIL1        0.0548
      5  H         57.5000   49.5000    48.5000 H       1  FIL1        0.0350
      6  H         57.5000   49.5000    49.5000 H       1  FIL1        0.0638
      7  H         57.5000   50.5000    48.5000 H       1  FIL1        0.1101
      8  H         57.5000   50.5000    49.5000 H       1  FIL1        0.1217
      9  H         58.5000   46.5000    56.5000 H       1  FIL1        0.0403
     10  H         58.5000   46.5000    57.5000 H       1  FIL1        0.0436
     11  H         58.5000   49.5000    49.5000 H       1  FIL1        0.0359
     12  H         58.5000   50.5000    48.5000 H       1  FIL1        0.0852
     13  H         58.5000   50.5000    49.5000 H       1  FIL1        0.0918
     14  H         58.5000   51.5000    49.5000 H       1  FIL1        0.0732
     15  H         59.5000   51.5000    41.5000 H       1  FIL1        0.0627
     16  H         59.5000   51.5000    42.5000 H       1  FIL1        0.1805
     17  H         59.5000   51.5000    43.5000 H       1  FIL1        0.0498
     18  H         60.5000   51.5000    41.5000 H       1  FIL1        0.0717
     19  H         60.5000   51.5000    42.5000 H       1  FIL1        0.0903
@<TRIPOS>BOND
