# created with PyMOL 2.3.3
@<TRIPOS>MOLECULE
pocket
19 0 1                  
SMALL
USER_CHARGES
@<TRIPOS>ATOM
1	   H	57.500	45.500	56.500	 H	1	FIL1	0.031	
2	   H	57.500	45.500	57.500	 H	1	FIL1	0.054	
3	   H	57.500	46.500	56.500	 H	1	FIL1	0.044	
4	   H	57.500	46.500	57.500	 H	1	FIL1	0.055	
5	   H	57.500	49.500	48.500	 H	1	FIL1	0.035	
6	   H	57.500	49.500	49.500	 H	1	FIL1	0.064	
7	   H	57.500	50.500	48.500	 H	1	FIL1	0.110	
8	   H	57.500	50.500	49.500	 H	1	FIL1	0.122	
9	   H	58.500	46.500	56.500	 H	1	FIL1	0.040	
10	   H	58.500	46.500	57.500	 H	1	FIL1	0.044	
11	   H	58.500	49.500	49.500	 H	1	FIL1	0.036	
12	   H	58.500	50.500	48.500	 H	1	FIL1	0.085	
13	   H	58.500	50.500	49.500	 H	1	FIL1	0.092	
14	   H	58.500	51.500	49.500	 H	1	FIL1	0.073	
15	   H	59.500	51.500	41.500	 H	1	FIL1	0.063	
16	   H	59.500	51.500	42.500	 H	1	FIL1	0.181	
17	   H	59.500	51.500	43.500	 H	1	FIL1	0.050	
18	   H	60.500	51.500	41.500	 H	1	FIL1	0.072	
19	   H	60.500	51.500	42.500	 H	1	FIL1	0.090	
@<TRIPOS>BOND
@<TRIPOS>SUBSTRUCTURE
1	FIL1	1	GROUP	1 ****	FIL
