@<TRIPOS>MOLECULE
pocket
 20 0 0 0
SMALL
GASTEIGER

@<TRIPOS>ATOM
      1  H         57.5000   50.5000    49.5000 H       1  FIL1        0.0095
      2  H         57.5000   50.5000    50.5000 H       1  FIL1        0.0069
      3  H         57.5000   51.5000    49.5000 H       1  FIL1        0.0225
      4  H         57.5000   51.5000    50.5000 H       1  FIL1        0.0082
      5  H         57.5000   52.5000    49.5000 H       1  FIL1        0.0072
      6  H         58.5000   51.5000    48.5000 H       1  FIL1        0.0098
      7  H         58.5000   51.5000    49.5000 H       1  FIL1        0.0199
      8  H         58.5000   53.5000    41.5000 H       1  FIL1        0.0088
      9  H         59.5000   53.5000    41.5000 H       1  FIL1        0.0251
     10  H         59.5000   54.5000    41.5000 H       1  FIL1        0.0090
     11  H         60.5000   52.5000    41.5000 H       1  FIL1        0.0066
     12  H         60.5000   52.5000    42.5000 H       1  FIL1        0.0089
     13  H         60.5000   52.5000    43.5000 H       1  FIL1        0.0056
     14  H         60.5000   53.5000    41.5000 H       1  FIL1        0.0344
     15  H         60.5000   53.5000    42.5000 H       1  FIL1        0.0127
     16  H         60.5000   54.5000    41.5000 H       1  FIL1        0.0056
     17  H         60.5000   54.5000    48.5000 H       1  FIL1        0.0053
     18  H         61.5000   52.5000    42.5000 H       1  FIL1        0.0059
     19  H         61.5000   53.5000    41.5000 H       1  FIL1        0.0087
     20  H         61.5000   53.5000    42.5000 H       1  FIL1        0.0088
@<TRIPOS>BOND
